
**** 03/16/25 19:44:34 **** PSpice 24.1.0 (23 January 2025) *** ID# 0 ********

 ** Profile: "SCHEMATIC1-protectie_temperatura"  [ C:\SPB_Data\cdssetup\workspace\projects\stabilizator_de_tensiune\stabilizator_de_t


 ****     CIRCUIT DESCRIPTION


******************************************************************************




** Creating circuit file "protectie_temperatura.cir" 
** WARNING: THIS AUTOMATICALLY GENERATED FILE MAY BE OVERWRITTEN BY SUBSEQUENT SIMULATIONS

*Libraries: 
* Profile Libraries :
* Local Libraries :
.LIB "c:/users/cosmi/downloads/lib_modelepspice_anexa_1/lib_modelepspice_anexa_1/modele_a1_lib/bzx84c5v1.lib" 
.LIB "c:/users/cosmi/downloads/lib_modelepspice_anexa_1/lib_modelepspice_anexa_1/modele_a1_lib/bzx84c5v6.lib" 
.LIB "c:/users/cosmi/downloads/lib_modelepspice_anexa_1/lib_modelepspice_anexa_1/modele_a1_lib/bzx84c6v2.lib" 
.LIB "c:/users/cosmi/downloads/lib_modelepspice_anexa_1/lib_modelepspice_anexa_1/modele_a1_lib/bzx84c6v8.lib" 
.LIB "c:/users/cosmi/downloads/lib_modelepspice_anexa_1/lib_modelepspice_anexa_1/modele_a1_lib/bzx84c8v2.lib" 
.LIB "c:/users/cosmi/downloads/lib_modelepspice_anexa_1/lib_modelepspice_anexa_1/modele_a1_lib/irfr120npbf.lib" 
.LIB "c:/users/cosmi/downloads/lib_modelepspice_anexa_1/lib_modelepspice_anexa_1/modele_a1_lib/mjd31cg.lib" 
.LIB "c:/users/cosmi/downloads/lib_modelepspice_anexa_1/lib_modelepspice_anexa_1/modele_a1_lib/mjd32cg.lib" 
.LIB "c:/users/cosmi/downloads/lib_modelepspice_anexa_1/lib_modelepspice_anexa_1/modele_a1_lib/mmbfj177lt1g.lib" 
.LIB "c:/users/cosmi/downloads/lib_modelepspice_anexa_1/lib_modelepspice_anexa_1/modele_a1_lib/mmbfj309lt1g.lib" 
.LIB "c:/users/cosmi/downloads/lib_modelepspice_anexa_1/lib_modelepspice_anexa_1/modele_a1_lib/1n4148.lib" 
.LIB "c:/users/cosmi/downloads/lib_modelepspice_anexa_1/lib_modelepspice_anexa_1/modele_a1_lib/bc807-25.lib" 
.LIB "c:/users/cosmi/downloads/lib_modelepspice_anexa_1/lib_modelepspice_anexa_1/modele_a1_lib/bc817-25.lib" 
.LIB "c:/users/cosmi/downloads/lib_modelepspice_anexa_1/lib_modelepspice_anexa_1/modele_a1_lib/bc846b.lib" 
.LIB "c:/users/cosmi/downloads/lib_modelepspice_anexa_1/lib_modelepspice_anexa_1/modele_a1_lib/bc856b.lib" 
.LIB "c:/users/cosmi/downloads/lib_modelepspice_anexa_1/lib_modelepspice_anexa_1/modele_a1_lib/bzx84c2v7.lib" 
.LIB "c:/users/cosmi/downloads/lib_modelepspice_anexa_1/lib_modelepspice_anexa_1/modele_a1_lib/bzx84c10.lib" 
* From [PSPICE NETLIST] section of C:\SPB_Data\cdssetup\OrCAD_PSpice\24.1.0\PSpice.ini file:
.lib "nom.lib" 

*Analysis directives: 
.DC LIN TEMP 0 250 0.01 
.OPTIONS ADVCONV
.PROBE64 V(alias(*)) I(alias(*)) W(alias(*)) D(alias(*)) NOISE(alias(*)) 
.INC "..\SCHEMATIC1.net" 



**** INCLUDING SCHEMATIC1.net ****
* source STABILIZATOR_DE_TENSIUNE
Q_Q1         N00172 N06754 N00184 QBC846B 
Q_Q2         N00180 N65068 N00184 QBC846B 
Q_Q3         N00172 N00172 N11321 QBC807-25 
Q_Q4         N00180 N00172 N11325 QBC807-25 
V_V1         N00355 0 18V
Q_Q6         N00355 N00180 N84235 QBC846B 
Q_Q7         N00355 N84235 N00751 QBC846B 
R_RL         0 N00769  500 TC=0,0 
R_R4         N12843 N00355  1K TC=0,0 
R_R6         N06754 N00355  1k TC=0,0 
R_R9         N11321 N00355  100 TC=0,0 
R_R10         N11325 N00355  100 TC=0,0 
Q_Q9         N00184 N12886 N60921 QBC846B 
Q_Q10         N12843 N12886 N60878 QBC846B 
R_R14         0 N65489  2k TC=0,0 
D_D1         0 N06754 BZX84-C5V1 
Q_Q11         N00355 N12843 N12886 QBC846B 
R_R16         0 N60878  100 TC=0,0 
R_R17         0 N60921  100 TC=0,0 
Q_Q14         N00180 N00751 N00769 QBC846B 
R_R20         N00769 N00751  2 TC=0,0 
X_R15         N00769 N65068 N65489 POT PARAMS: SET=1 VALUE=2k
C_C1         0 N00769  100n  TC=0,0 
Q_Q16         N00180 N70839 0 QBC846B 
R_R21         0 N70839  1k TC=0,0 
Q_Q17         N00355 N06754 N79495 QBC846B 
R_R22         N70839 N79495  5k TC=0,0 

**** RESUMING protectie_temperatura.cir ****
.END

**** 03/16/25 19:44:34 **** PSpice 24.1.0 (23 January 2025) *** ID# 0 ********

 ** Profile: "SCHEMATIC1-protectie_temperatura"  [ C:\SPB_Data\cdssetup\workspace\projects\stabilizator_de_tensiune\stabilizator_de_t


 ****     Diode MODEL PARAMETERS


******************************************************************************




               BZX84-C5V1      
          IS    2.666500E-18 
           N     .82284      
         ISR  150.400000E-12 
         IKF     .01176      
          BV    5.176        
         IBV     .10454      
          RS     .51617      
          TT   43.858000E-09 
         CJO  232.290000E-12 
          VJ     .79587      
           M     .35004      


**** 03/16/25 19:44:34 **** PSpice 24.1.0 (23 January 2025) *** ID# 0 ********

 ** Profile: "SCHEMATIC1-protectie_temperatura"  [ C:\SPB_Data\cdssetup\workspace\projects\stabilizator_de_tensiune\stabilizator_de_t


 ****     BJT MODEL PARAMETERS


******************************************************************************




               QBC807-25       QBC846B         
               PNP             NPN             
       LEVEL    1               1            
          IS  108.000000E-15   18.220000E-15 
          BF  385.7           324.4          
          NF     .99             .9932       
         VAF   31.29           82            
         IKF     .3603           .109        
         ISE   27.130000E-15  289.400000E-18 
          NE    1.4             1.4          
          BR   20.57            8.29         
          NR     .9849           .9931       
         VAR   11.62           17.9          
         IKR     .054            .09         
         ISC  506.200000E-15    9.982000E-12 
          NC    1.295           1.763        
         ISS    0               0            
          RB    1              10            
         RBM     .5             5            
         IRB    1.000000E-06    5.000000E-06 
          RE     .1415           .649        
          RC     .2623           .7014       
         CJE   51.140000E-12   12.440000E-12 
         VJE     .8911           .7579       
         MJE     .4417           .3656       
         CJC   26.560000E-12    3.347000E-12 
         VJC     .62             .5463       
         MJC     .4836           .391        
        XCJC     .459            .6193       
         CJS    0               0            
         VJS     .75             .75         
         MJS     .333            .333        
          FC     .99             .979        
          TF  735.900000E-12  490.800000E-12 
         XTF    1.859           9.51         
         VTF    3.813           2.927        
         ITF     .4393           .3131       
          TR   50.000000E-09   90.000000E-09 
          KF    0               0            
          AF    1               1            
          CN    2.2             2.42         
           D     .52             .87         


Starting pseudo-transient algorithm.

INFO(ORPSIM-16594): To improve Pseudotransient Convergence and Performance, set following options to relax stabilization criteria for capacitor currents and inductor voltages: PTRANABSTOL=1e-5, PTRANVNTOL=1e-4

Starting pseudo-transient algorithm.

Starting pseudo-transient algorithm.

Starting pseudo-transient algorithm.

ERROR(ORPSIM-16550): Floating point computation failed during matrix solution. Possible solutions: 1)Ensure that all device parameters are in valid range. 2)Try using .options LIMIT

INTERNAL ERROR -- Overflow, Multiply(1.25633e+307, 14.7655)

ABORTING SIMULATION
**** 03/16/25 19:44:34 **** PSpice 24.1.0 (23 January 2025) *** ID# 0 ********

 ** Profile: "SCHEMATIC1-protectie_temperatura"  [ C:\SPB_Data\cdssetup\workspace\projects\stabilizator_de_tensiune\stabilizator_de_t


 ****     JOB STATISTICS SUMMARY


******************************************************************************



Node counts:
  Top level (NUNODS)                =          19
  External (NCNODS)                 =          19
  Total (NUMNOD)                    =          56

Total device count (NUMEL)          =          28
  Capacitors (C)                    =           1
  Diodes (D)                        =           1
  BJTs (Q)                          =          12
  Resistors (R)                     =          13
  Voltage Sources (V)               =           1

Number of subcircuits (X)           =           1

Matrix statistics:
  Matrix size (NSTOP)               =          57
  Initial no. elements (NTTAR)      =         239
  No. elements w/ fillin (NTTBR)    =         516
  No. fillins (IFILL)               =         277
  No. overflows (NTTOV)             =         116
  No. LU operations (IOPS)          =        1643
  Percent sparsity (PERSPA)         =      84.118

Analysis statistics:
  No. total time points (NUMTTP)    =           0
  No. rejected time points (NUMRTP) =           0
  No. iterations (NUMNIT)           =           0

Load Threads                        =           1

Runtime statistics:                       Seconds      Iterations   Stopped At
  Matrix load                       =         .06
  Matrix solution                   =         .02             130
  Readin                            =        0.00
  General setup                     =        0.00
  CMI setup                     =        0.00
  Setup                             =        0.00
  DC sweep                          =         .06            3712
  Bias point                        =        0.00               0
  Default algorithm                 =        -.08            -917
  GMIN stepping                     =         .02             917     100.00m
  Supply stepping                   =         .02               0         .00%
  Quasi-tran                        =         .05               0        0.00%
  AC and noise                      =        0.00               0
  Total transient analysis          =        0.00
  Output                            =        0.00
  Overhead                          =         .06
  Total job time (using Solver 1)   =         .08
