
**** 03/06/25 23:18:27 **** PSpice 24.1.0 (23 January 2025) *** ID# 0 ********

 ** Profile: "SCHEMATIC1-Vout_timp"  [ C:\SPB_Data\cdssetup\workspace\projects\stabilizator_de_tensiune\stabilizator_de_tensiune-pspi


 ****     CIRCUIT DESCRIPTION


******************************************************************************




** Creating circuit file "Vout_timp.cir" 
** WARNING: THIS AUTOMATICALLY GENERATED FILE MAY BE OVERWRITTEN BY SUBSEQUENT SIMULATIONS

*Libraries: 
* Profile Libraries :
* Local Libraries :
.LIB "c:/users/cosmi/downloads/lib_modelepspice_anexa_1/lib_modelepspice_anexa_1/modele_a1_lib/bzx84c5v1.lib" 
.LIB "c:/users/cosmi/downloads/lib_modelepspice_anexa_1/lib_modelepspice_anexa_1/modele_a1_lib/bzx84c5v6.lib" 
.LIB "c:/users/cosmi/downloads/lib_modelepspice_anexa_1/lib_modelepspice_anexa_1/modele_a1_lib/bzx84c6v2.lib" 
.LIB "c:/users/cosmi/downloads/lib_modelepspice_anexa_1/lib_modelepspice_anexa_1/modele_a1_lib/bzx84c6v8.lib" 
.LIB "c:/users/cosmi/downloads/lib_modelepspice_anexa_1/lib_modelepspice_anexa_1/modele_a1_lib/bzx84c8v2.lib" 
.LIB "c:/users/cosmi/downloads/lib_modelepspice_anexa_1/lib_modelepspice_anexa_1/modele_a1_lib/irfr120npbf.lib" 
.LIB "c:/users/cosmi/downloads/lib_modelepspice_anexa_1/lib_modelepspice_anexa_1/modele_a1_lib/mjd31cg.lib" 
.LIB "c:/users/cosmi/downloads/lib_modelepspice_anexa_1/lib_modelepspice_anexa_1/modele_a1_lib/mjd32cg.lib" 
.LIB "c:/users/cosmi/downloads/lib_modelepspice_anexa_1/lib_modelepspice_anexa_1/modele_a1_lib/mmbfj177lt1g.lib" 
.LIB "c:/users/cosmi/downloads/lib_modelepspice_anexa_1/lib_modelepspice_anexa_1/modele_a1_lib/mmbfj309lt1g.lib" 
.LIB "c:/users/cosmi/downloads/lib_modelepspice_anexa_1/lib_modelepspice_anexa_1/modele_a1_lib/1n4148.lib" 
.LIB "c:/users/cosmi/downloads/lib_modelepspice_anexa_1/lib_modelepspice_anexa_1/modele_a1_lib/bc807-25.lib" 
.LIB "c:/users/cosmi/downloads/lib_modelepspice_anexa_1/lib_modelepspice_anexa_1/modele_a1_lib/bc817-25.lib" 
.LIB "c:/users/cosmi/downloads/lib_modelepspice_anexa_1/lib_modelepspice_anexa_1/modele_a1_lib/bc846b.lib" 
.LIB "c:/users/cosmi/downloads/lib_modelepspice_anexa_1/lib_modelepspice_anexa_1/modele_a1_lib/bc856b.lib" 
.LIB "c:/users/cosmi/downloads/lib_modelepspice_anexa_1/lib_modelepspice_anexa_1/modele_a1_lib/bzx84c2v7.lib" 
.LIB "c:/users/cosmi/downloads/lib_modelepspice_anexa_1/lib_modelepspice_anexa_1/modele_a1_lib/bzx84c10.lib" 
* From [PSPICE NETLIST] section of C:\SPB_Data\cdssetup\OrCAD_PSpice\24.1.0\PSpice.ini file:
.lib "nom.lib" 

*Analysis directives: 
.TRAN  0 1ms 0 1us 
.OPTIONS ADVCONV
.PROBE64 V(alias(*)) I(alias(*)) W(alias(*)) D(alias(*)) NOISE(alias(*)) 
.INC "..\SCHEMATIC1.net" 



**** INCLUDING SCHEMATIC1.net ****
* source STABILIZATOR_DE_TENSIUNE
Q_Q1         N00172 N06754 N00184 QBC846B 
Q_Q2         N00180 N10650 N00184 QBC846B 
Q_Q3         N00172 N00172 N11321 QBC807-25 
Q_Q4         N00180 N00172 N11325 QBC807-25 
Q_Q5         N12882 N00337 0 QBC846B 
V_V1         N00355 0 18V
Q_Q6         N00355 N00180 N15743 QBC846B 
Q_Q7         N00355 N15743 N14182 QBC846B 
R_R2         N06936 N00675  5k TC=0,0 
R_R3         0 N06943  3k TC=0,0 
R_RL         0 N00675  500 TC=0,0 
Q_Q8         N00337 N00337 0 QBC846B 
R_R4         N12843 N00355  1k TC=0,0 
R_R6         N06754 N00355  1.5k TC=0,0 
X_R7         N06936 N10650 N06943 POT PARAMS: SET=0 VALUE=5k
D_D1         0 N06754 BZX84-C2V7 
R_R9         N11321 N00355  50 TC=0,0 
R_R10         N11325 N00355  50 TC=0,0 
Q_Q9         N00184 N12843 N12882 QBC846B 
Q_Q10         N12843 N12843 N00337 QBC846B 
R_R11         N00675 N14182  2 TC=0,0 
Q_Q11         N00180 N14182 N00675 QBC846B 
Q_Q12         N00180 N15368 0 QBC846B 
X_R12         0 N15368 N16171 POT PARAMS: SET=0.9 VALUE=2k
R_R14         N16171 N06754  1k TC=0,0 

**** RESUMING Vout_timp.cir ****
.END

**** 03/06/25 23:18:27 **** PSpice 24.1.0 (23 January 2025) *** ID# 0 ********

 ** Profile: "SCHEMATIC1-Vout_timp"  [ C:\SPB_Data\cdssetup\workspace\projects\stabilizator_de_tensiune\stabilizator_de_tensiune-pspi


 ****     Diode MODEL PARAMETERS


******************************************************************************




               BZX84-C2V7      
          IS  110.880000E-18 
           N     .92657      
         ISR    1.515900E-06 
         IKF  147.68         
          BV    2.7639       
         IBV     .06977      
          RS     .85899      
          TT   17.889000E-09 
         CJO  344.690000E-12 
          VJ     .72935      
           M     .31964      


**** 03/06/25 23:18:27 **** PSpice 24.1.0 (23 January 2025) *** ID# 0 ********

 ** Profile: "SCHEMATIC1-Vout_timp"  [ C:\SPB_Data\cdssetup\workspace\projects\stabilizator_de_tensiune\stabilizator_de_tensiune-pspi


 ****     BJT MODEL PARAMETERS


******************************************************************************




               QBC807-25       QBC846B         
               PNP             NPN             
       LEVEL    1               1            
          IS  108.000000E-15   18.220000E-15 
          BF  385.7           324.4          
          NF     .99             .9932       
         VAF   31.29           82            
         IKF     .3603           .109        
         ISE   27.130000E-15  289.400000E-18 
          NE    1.4             1.4          
          BR   20.57            8.29         
          NR     .9849           .9931       
         VAR   11.62           17.9          
         IKR     .054            .09         
         ISC  506.200000E-15    9.982000E-12 
          NC    1.295           1.763        
         ISS    0               0            
          RB    1              10            
         RBM     .5             5            
         IRB    1.000000E-06    5.000000E-06 
          RE     .1415           .649        
          RC     .2623           .7014       
         CJE   51.140000E-12   12.440000E-12 
         VJE     .8911           .7579       
         MJE     .4417           .3656       
         CJC   26.560000E-12    3.347000E-12 
         VJC     .62             .5463       
         MJC     .4836           .391        
        XCJC     .459            .6193       
         CJS    0               0            
         VJS     .75             .75         
         MJS     .333            .333        
          FC     .99             .979        
          TF  735.900000E-12  490.800000E-12 
         XTF    1.859           9.51         
         VTF    3.813           2.927        
         ITF     .4393           .3131       
          TR   50.000000E-09   90.000000E-09 
          KF    0               0            
          AF    1               1            
          CN    2.2             2.42         
           D     .52             .87         


**** 03/06/25 23:18:27 **** PSpice 24.1.0 (23 January 2025) *** ID# 0 ********

 ** Profile: "SCHEMATIC1-Vout_timp"  [ C:\SPB_Data\cdssetup\workspace\projects\stabilizator_de_tensiune\stabilizator_de_tensiune-pspi


 ****     INITIAL TRANSIENT SOLUTION       TEMPERATURE =   27.000 DEG C


******************************************************************************



 NODE   VOLTAGE     NODE   VOLTAGE     NODE   VOLTAGE     NODE   VOLTAGE


(N00172)   16.9500 (N00180)   13.3980 (N00184)    2.0267 (N00337)     .7229     

(N00355)   18.0000 (N00675)   12.0360 (N06754)    2.7196 (N06936)    7.3783     

(N06943)    2.7207 (N10650)    2.7207 (N11321)   17.5950 (N11325)   17.5920     

(N12843)    1.4459 (N12882)     .7234 (N14182)   12.0860 (N15368)     .1813     

(N15743)   12.8250 (N16171)    1.8131 




    VOLTAGE SOURCE CURRENTS
    NAME         CURRENT

    V_V1        -6.801E-02

    TOTAL POWER DISSIPATION   1.22E+00  WATTS

Reducing minimum delta to make the circuit converge.
Reducing minimum delta to make the circuit converge.
Reducing minimum delta to make the circuit converge.
Reducing minimum delta to make the circuit converge.

ERROR(ORPSIM-15138): Convergence problem in Transient Analysis at Time =  1.250E-09.
         Time step =  228.1E-21, minimum allowable step size =  1.000E-18

  These voltages failed to converge:

    V(N00172)                 =     16.39V  \     16.37V
    V(N06754)                 =     2.760V  \     2.727V
    V(N00184)                 =     2.122V  \     2.052V
    V(N00180)                 =     13.94V  \     13.92V
    V(N10650)                 =     2.856V  \     2.812V
    V(N11321)                 =     17.06V  \     17.04V
    V(N11325)                 =     17.06V  \     17.04V
    V(N12882)                 =   177.18mV  \    23.33mV
    V(N00337)                 =   264.37mV  \    89.23mV
    V(N14182)                 =     12.76V  \     12.74V
    V(N06936)                 =     7.779V  \     7.750V
    V(N00675)                 =     12.70V  \     12.69V
    V(N06943)                 =     2.856V  \     2.812V
    V(N12843)                 =   933.96mV  \   799.89mV
    V(N15368)                 =   540.54mV  \   532.07mV
    V(N16171)                 =     1.967V  \     1.943V

  These supply currents failed to converge:

    I(V_V1)                   =   -53.64mA  \   -95.47mA

  These devices failed to converge:
    D_D1      Q_Q1      Q_Q2      Q_Q3      Q_Q4      Q_Q5      Q_Q6      
    Q_Q7      Q_Q8      Q_Q9      Q_Q10     Q_Q11     Q_Q12     



  Last node voltages tried were:

 NODE   VOLTAGE     NODE   VOLTAGE     NODE   VOLTAGE     NODE   VOLTAGE


(N00172)   16.3930 (N00180)   13.9390 (N00184)    2.1215 (N00337)     .2644     

(N00355)   18.0000 (N00675)   12.7030 (N06754)    2.7599 (N06936)    7.7794     

(N06943)    2.8561 (N10650)    2.8561 (N11321)   17.0570 (N11325)   17.0570     

(N12843)     .9340 (N12882)     .1772 (N14182)   12.7560 (N15368)     .5405     

(N15743)   13.4960 (N16171)    1.9673 


**** Interrupt ****
**** Param: RELTOL = 0.001
**** Param: ABSTOL = 1e-12
**** Param: VNTOL = 1e-06
**** Param: GMIN = 1e-12
**** Param: TSTOP = 0.001
**** Param: TMAX = 1e-06
**** Param: ITL1 = 150
**** Param: ITL2 = 20
**** Param: ITL4 = 100
**** Param: AutoConverge = 1
**** Param: AutoConverge.ITL1 = 1000
**** Param: AutoConverge.ITL2 = 1000
**** Param: AutoConverge.ITL4 = 1000
**** Param: AutoConverge.RELTOL = 0.05
**** Param: AutoConverge.ABSTOL = 0.001
**** Param: AutoConverge.VNTOL = 0.001
**** Param: AutoConverge.PIVTOL = 1e-10
**** Param: ADVCONV = 1
**** Param: Current_Simulation = 3
**** Param: METHOD = 0
**** Param: TRTOL = 7
**** Param: STEPGMIN = 0
**** Param: GMINSTEPS = 0
**** Param: ITL6 = 0
**** Param: NOSTEPDEP = 0
**** Param: PTRANSTEP = 0
**** Param: GMINSRC = 0
**** Param: PSEUDOTRAN = 0
**** Param: NOSTEPSRC = 0
Convergence problem in transient analysis at Time =  1.250E-09
         Time step =  456.2E-21, minimum allowable step size =  1.000E-18

  These devices failed to converge:
    Q_Q1      Q_Q2      Q_Q3      Q_Q4      Q_Q5      Q_Q6      Q_Q7      
    Q_Q8      Q_Q9      Q_Q10     Q_Q11     Q_Q12     



  Last node voltages tried were:

 NODE   VOLTAGE     NODE   VOLTAGE     NODE   VOLTAGE     NODE   VOLTAGE


(N00172)   16.3930 (N00180)   13.9390 (N00184)    2.1215 (N00337)     .2644     

(N00355)   18.0000 (N00675)   12.7030 (N06754)    2.7599 (N06936)    7.7794     

(N06943)    2.8561 (N10650)    2.8561 (N11321)   17.0570 (N11325)   17.0570     

(N12843)     .9340 (N12882)     .1772 (N14182)   12.7560 (N15368)     .5405     

(N15743)   13.4960 (N16171)    1.9673 

Resuming Simulation with the following settings
ITL4 = 354
ABSTOL = 1.41e-09

Convergence problem in transient analysis at Time =  1.250E-09
         Time step =  456.2E-21, minimum allowable step size =  1.000E-18

  These devices failed to converge:
    Q_Q1      Q_Q2      Q_Q3      Q_Q4      Q_Q5      Q_Q6      Q_Q7      
    Q_Q8      Q_Q9      Q_Q10     Q_Q11     Q_Q12     



  Last node voltages tried were:

 NODE   VOLTAGE     NODE   VOLTAGE     NODE   VOLTAGE     NODE   VOLTAGE


(N00172)   16.3930 (N00180)   13.9390 (N00184)    2.1215 (N00337)     .2644     

(N00355)   18.0000 (N00675)   12.7030 (N06754)    2.7599 (N06936)    7.7794     

(N06943)    2.8561 (N10650)    2.8561 (N11321)   17.0570 (N11325)   17.0570     

(N12843)     .9340 (N12882)     .1772 (N14182)   12.7560 (N15368)     .5405     

(N15743)   13.4960 (N16171)    1.9673 

Resuming Simulation with the following settings
ITL4 = 1000
ABSTOL = 2e-06

Convergence problem in transient analysis at Time =  1.250E-09
         Time step =  456.2E-21, minimum allowable step size =  1.000E-18

  These devices failed to converge:
    Q_Q1      Q_Q2      Q_Q3      Q_Q4      Q_Q5      Q_Q6      Q_Q7      
    Q_Q8      Q_Q9      Q_Q10     Q_Q11     Q_Q12     



  Last node voltages tried were:

 NODE   VOLTAGE     NODE   VOLTAGE     NODE   VOLTAGE     NODE   VOLTAGE


(N00172)   16.3930 (N00180)   13.9390 (N00184)    2.1215 (N00337)     .2644     

(N00355)   18.0000 (N00675)   12.7030 (N06754)    2.7599 (N06936)    7.7794     

(N06943)    2.8561 (N10650)    2.8561 (N11321)   17.0570 (N11325)   17.0570     

(N12843)     .9340 (N12882)     .1772 (N14182)   12.7560 (N15368)     .5405     

(N15743)   13.4960 (N16171)    1.9673 

Resuming Simulation with the following settings
ABSTOL = 0.001

Convergence problem in transient analysis at Time =  1.250E-09
         Time step =  456.2E-21, minimum allowable step size =  1.000E-18

  These devices failed to converge:
    Q_Q1      Q_Q2      Q_Q4      Q_Q5      Q_Q6      Q_Q7      Q_Q8      
    Q_Q9      Q_Q10     Q_Q11     Q_Q12     



  Last node voltages tried were:

 NODE   VOLTAGE     NODE   VOLTAGE     NODE   VOLTAGE     NODE   VOLTAGE


(N00172)   16.3930 (N00180)   13.9390 (N00184)    2.1215 (N00337)     .2644     

(N00355)   18.0000 (N00675)   12.7030 (N06754)    2.7599 (N06936)    7.7794     

(N06943)    2.8561 (N10650)    2.8561 (N11321)   17.0570 (N11325)   17.0570     

(N12843)     .9340 (N12882)     .1772 (N14182)   12.7560 (N15368)     .5405     

(N15743)   13.4960 (N16171)    1.9673 

Resuming could not converge the circuit, restarting it now

  These voltages failed to converge:

    V(N00172)                 =     16.39V  \     16.39V
    V(N06754)                 =     2.760V  \     2.760V
    V(N00184)                 =     2.122V  \     2.122V
    V(N00180)                 =     13.94V  \     13.94V
    V(N10650)                 =     2.856V  \     2.856V
    V(N11321)                 =     17.06V  \     17.06V
    V(N11325)                 =     17.06V  \     17.06V
    V(N12882)                 =   177.18mV  \   177.18mV
    V(N00337)                 =   264.37mV  \   264.37mV
    V(N15743)                 =     13.50V  \     13.50V
    V(N14182)                 =     12.76V  \     12.76V
    V(N06936)                 =     7.779V  \     7.779V
    V(N00675)                 =     12.70V  \     12.70V
    V(N06943)                 =     2.856V  \     2.856V
    V(N12843)                 =   933.96mV  \   933.96mV
    V(N15368)                 =   540.54mV  \   540.54mV
    V(N16171)                 =     1.967V  \     1.967V

  These supply currents failed to converge:

    I(V_V1)                   =   -53.65mA  \   -53.65mA

  These devices failed to converge:
    Q_Q1      Q_Q2      Q_Q3      Q_Q4      Q_Q5      Q_Q6      Q_Q7      
    Q_Q8      Q_Q9      Q_Q10     Q_Q11     Q_Q12     

ERROR(ORPSIM-16550): Floating point computation failed during matrix solution. Possible solutions: 1)Ensure that all device parameters are in valid range. 2)Try using .options LIMIT

INTERNAL ERROR -- Invalid Number, Divide(0, 0)

ABORTING SIMULATION
**** 03/06/25 23:18:27 **** PSpice 24.1.0 (23 January 2025) *** ID# 0 ********

 ** Profile: "SCHEMATIC1-Vout_timp"  [ C:\SPB_Data\cdssetup\workspace\projects\stabilizator_de_tensiune\stabilizator_de_tensiune-pspi


 ****     JOB STATISTICS SUMMARY


******************************************************************************



Node counts:
  Top level (NUNODS)                =          19
  External (NCNODS)                 =          19
  Total (NUMNOD)                    =          56

Total device count (NUMEL)          =          27
  Diodes (D)                        =           1
  BJTs (Q)                          =          12
  Resistors (R)                     =          13
  Voltage Sources (V)               =           1

Number of subcircuits (X)           =           2

Matrix statistics:
  Matrix size (NSTOP)               =          57
  Initial no. elements (NTTAR)      =         235
  No. elements w/ fillin (NTTBR)    =         443
  No. fillins (IFILL)               =         208
  No. overflows (NTTOV)             =         118
  No. LU operations (IOPS)          =        1184
  Percent sparsity (PERSPA)         =      86.365

Analysis statistics:
  No. total time points (NUMTTP)    =          18
  No. rejected time points (NUMRTP) =          16
  No. iterations (NUMNIT)           =         270

Load Threads                        =           1

Runtime statistics:                       Seconds      Iterations   Stopped At
  Matrix load                       =        0.00
  Matrix solution                   =         .02              63
  Readin                            =         .02
  General setup                     =        0.00
  CMI setup                     =        0.00
  Setup                             =        0.00
  DC sweep                          =        0.00               0
  Bias point                        =         .02            1135
  Default algorithm                 =        0.00             150
  GMIN stepping                     =         .02             727     100.00m
  AC and noise                      =        0.00               0
  Total transient analysis          =        0.00
  Output                            =        0.00
  Overhead                          =         .08
  Total job time (using Solver 1)   =        5.38
